*HEADING
Test uni-axial tensile on a plane stress element for an UMAT based on the GTN damage model
SI units (kg, m, s, N)
1-axis horizontal, 2-axis vertical, 3-axis out of plane
: MEMBRANE LOADING  [CPS4]
*PREPRINT,ECHO=YES,HISTORY=NO,MODEL=NO
*NODE
 1, 0.0,   0.0
 2, 2.82842712E-3, 2.82842712E-3
 3, 0.0,           5.65685425E-3
 4, -2.82842712E-3, 2.82842712E-3
*NSET,NSET=DRESTRIC
2,3,4
*ELEMENT,TYPE=CPS4, ELSET=MEMTEST
 1, 1,2,3,4
*SOLID SECTION, ELSET=MEMTEST,MATERIAL=MATTEST
 ** Since this is a plane stress element, actually I don't know what specify, I let 
 ** the original value of 1.0
 1.0, 
*MATERIAL,NAME=MATTEST
**In the next line, elastic refers a to "material suboption", the use of elastic defines a linear elastic model, 
** which only require the Young's modulus and the Poison's ratio.
*ELASTIC,TYPE=ISOTROPIC
 30.0E6,0.3
 **Number of internal state variables for the subroutine
*Depvar
21,
**Input parameters for the subrutine
*User Material, constants=13
210.0e3,  0.33, 200.0, 50.0, 100.0,1.5, 1.0, 1.5, 0.004, 0.1. 0.3, 0.2025, 0.1 
*TRANSFORM, NSET=DRESTRIC, TYPE=R
5.0E-2,5.0E-2,0.0, -5.0E-2,5.0E-2,0.0
*BOUNDARY
 1,1,2
 2,2
 3,2
 4,1	
 ** In the next line, a parameter for step could be PERTURBATION, which is used to  indicate that is a linear analysis
** STEP: Tension
** 
*Step, name=Tension, nlgeom=NO, inc=20
*Static, direct
0.1, 1., 
**** In this test to specify the constrains that are at 45 from the reference system is required to use *TRANSFORM
** *BOUNDARY
 **   *TRANSFORM
** EL FILE This option is used to select the element variables that will be written to the results (.fil) file in
** an Abaqus/Standard analysis or to the selected results (.sel) file in an Abaqus/Explicit analysis. In an 
** Abaqus/Explicit analysis it must be used in conjunction with the *FILE OUTPUT option  
*EL FILE
 S,COORD,
 E,
 LOADS,
*OUTPUT,FIELD
*ELEMENT OUTPUT
S,COORD,
E,
LOADS,
*ENERGY FILE
*OUTPUT,HISTORY,FREQUENCY=1
*ENERGY OUTPUT,VARIABLE=PRESELECT
*NODE FILE
 U,COORD
*OUTPUT,FIELD
*NODE OUTPUT
U,COORD
** *NODE PRINT is used to print in the .dat file the node information, in this case displacement and reaction force
**NODE PRINT
** U,
** RF,
*NODE PRINT
 U,RF
** *EL PRINT can be used to print in the .dat file the element information, in this case displacement, reaction force
** *EL PRINT
** S,
*EL PRINT
 S,COORD,
 E,
 LOADS,
** END STEP option to mark the end of the step
*END STEP